/*--------------------------------*- C++ -*----------------------------------*\
| =========                 |                                                 |
| \\      /  F ield         | OpenFOAM: The Open Source CFD Toolbox           |
|  \\    /   O peration     | Version:  v1806                                 |
|   \\  /    A nd           | Web:      www.OpenFOAM.com                      |
|    \\/     M anipulation  |                                                 |
\*---------------------------------------------------------------------------*/
FoamFile
{
    version     2.0;
    format      ascii;
    class       featureEdgeMesh;
    location    "constant/triSurface";
    object      cylinder.eMesh;
}
// * * * * * * * * * * * * * * * * * * * * * * * * * * * * * * * * * * * * * //


// points:

64
(
(0 7 40)
(1.36563 6.8655 40)
(1.36563 6.8655 -20)
(0 7 -20)
(2.67878 6.46716 40)
(2.67878 6.46716 -20)
(3.88899 5.82029 40)
(3.88899 5.82029 -20)
(4.94975 4.94975 40)
(4.94975 4.94975 -20)
(5.82029 3.88899 40)
(5.82029 3.88899 -20)
(6.46716 2.67878 40)
(6.46716 2.67878 -20)
(6.8655 1.36563 40)
(6.8655 1.36563 -20)
(7 5.28485e-07 40)
(7 5.28485e-07 -20)
(6.8655 -1.36563 40)
(6.8655 -1.36563 -20)
(6.46716 -2.67878 40)
(6.46716 -2.67878 -20)
(5.82029 -3.88899 40)
(5.82029 -3.88899 -20)
(4.94975 -4.94975 40)
(4.94975 -4.94975 -20)
(3.88899 -5.82029 40)
(3.88899 -5.82029 -20)
(2.67878 -6.46716 40)
(2.67878 -6.46716 -20)
(1.36563 -6.8655 40)
(1.36563 -6.8655 -20)
(-2.28089e-06 -7 40)
(-2.28089e-06 -7 -20)
(-1.36564 -6.8655 40)
(-1.36564 -6.8655 -20)
(-2.67879 -6.46716 40)
(-2.67879 -6.46716 -20)
(-3.889 -5.82028 40)
(-3.889 -5.82028 -20)
(-4.94975 -4.94974 40)
(-4.94975 -4.94974 -20)
(-5.82029 -3.88899 40)
(-5.82029 -3.88899 -20)
(-6.46716 -2.67878 40)
(-6.46716 -2.67878 -20)
(-6.8655 -1.36563 40)
(-6.8655 -1.36563 -20)
(-7 6.75919e-06 40)
(-7 6.75919e-06 -20)
(-6.8655 1.36564 40)
(-6.8655 1.36564 -20)
(-6.46715 2.67879 40)
(-6.46715 2.67879 -20)
(-5.82028 3.889 40)
(-5.82028 3.889 -20)
(-4.94974 4.94975 40)
(-4.94974 4.94975 -20)
(-3.88898 5.82029 40)
(-3.88898 5.82029 -20)
(-2.67877 6.46716 40)
(-2.67877 6.46716 -20)
(-1.36562 6.8655 40)
(-1.36562 6.8655 -20)
)


// edges:

64
(
(0 1)
(2 3)
(1 4)
(5 2)
(4 6)
(7 5)
(6 8)
(9 7)
(8 10)
(11 9)
(10 12)
(13 11)
(12 14)
(15 13)
(14 16)
(17 15)
(16 18)
(19 17)
(18 20)
(21 19)
(20 22)
(23 21)
(22 24)
(25 23)
(24 26)
(27 25)
(26 28)
(29 27)
(28 30)
(31 29)
(30 32)
(33 31)
(32 34)
(35 33)
(34 36)
(37 35)
(36 38)
(39 37)
(38 40)
(41 39)
(40 42)
(43 41)
(42 44)
(45 43)
(44 46)
(47 45)
(46 48)
(49 47)
(48 50)
(51 49)
(50 52)
(53 51)
(52 54)
(55 53)
(54 56)
(57 55)
(56 58)
(59 57)
(58 60)
(61 59)
(62 60)
(0 62)
(63 61)
(3 63)
)

// * * * * * * * * * * * * * * * * * * * * * * * * * * * * * * * * * * * * * //


// ************************************************************************* //
