/*--------------------------------*- C++ -*----------------------------------*\
| =========                 |                                                 |
| \\      /  F ield         | OpenFOAM: The Open Source CFD Toolbox           |
|  \\    /   O peration     | Version:  v1806                                 |
|   \\  /    A nd           | Web:      www.OpenFOAM.com                      |
|    \\/     M anipulation  |                                                 |
\*---------------------------------------------------------------------------*/
FoamFile
{
    version     2.0;
    format      ascii;
    class       extendedFeatureEdgeMesh;
    location    "constant/extendedFeatureEdgeMesh";
    object      cylinder.extendedFeatureEdgeMesh;
}
// * * * * * * * * * * * * * * * * * * * * * * * * * * * * * * * * * * * * * //

// points

64
(
(0 7 40)
(1.36563 6.8655 40)
(1.36563 6.8655 -20)
(0 7 -20)
(2.67878 6.46716 40)
(2.67878 6.46716 -20)
(3.88899 5.82029 40)
(3.88899 5.82029 -20)
(4.94975 4.94975 40)
(4.94975 4.94975 -20)
(5.82029 3.88899 40)
(5.82029 3.88899 -20)
(6.46716 2.67878 40)
(6.46716 2.67878 -20)
(6.8655 1.36563 40)
(6.8655 1.36563 -20)
(7 5.28485e-07 40)
(7 5.28485e-07 -20)
(6.8655 -1.36563 40)
(6.8655 -1.36563 -20)
(6.46716 -2.67878 40)
(6.46716 -2.67878 -20)
(5.82029 -3.88899 40)
(5.82029 -3.88899 -20)
(4.94975 -4.94975 40)
(4.94975 -4.94975 -20)
(3.88899 -5.82029 40)
(3.88899 -5.82029 -20)
(2.67878 -6.46716 40)
(2.67878 -6.46716 -20)
(1.36563 -6.8655 40)
(1.36563 -6.8655 -20)
(-2.28089e-06 -7 40)
(-2.28089e-06 -7 -20)
(-1.36564 -6.8655 40)
(-1.36564 -6.8655 -20)
(-2.67879 -6.46716 40)
(-2.67879 -6.46716 -20)
(-3.889 -5.82028 40)
(-3.889 -5.82028 -20)
(-4.94975 -4.94974 40)
(-4.94975 -4.94974 -20)
(-5.82029 -3.88899 40)
(-5.82029 -3.88899 -20)
(-6.46716 -2.67878 40)
(-6.46716 -2.67878 -20)
(-6.8655 -1.36563 40)
(-6.8655 -1.36563 -20)
(-7 6.75919e-06 40)
(-7 6.75919e-06 -20)
(-6.8655 1.36564 40)
(-6.8655 1.36564 -20)
(-6.46715 2.67879 40)
(-6.46715 2.67879 -20)
(-5.82028 3.889 40)
(-5.82028 3.889 -20)
(-4.94974 4.94975 40)
(-4.94974 4.94975 -20)
(-3.88898 5.82029 40)
(-3.88898 5.82029 -20)
(-2.67877 6.46716 40)
(-2.67877 6.46716 -20)
(-1.36562 6.8655 40)
(-1.36562 6.8655 -20)
)

// edges

64
(
(0 1)
(2 3)
(1 4)
(5 2)
(4 6)
(7 5)
(6 8)
(9 7)
(8 10)
(11 9)
(10 12)
(13 11)
(12 14)
(15 13)
(14 16)
(17 15)
(16 18)
(19 17)
(18 20)
(21 19)
(20 22)
(23 21)
(22 24)
(25 23)
(24 26)
(27 25)
(26 28)
(29 27)
(28 30)
(31 29)
(30 32)
(33 31)
(32 34)
(35 33)
(34 36)
(37 35)
(36 38)
(39 37)
(38 40)
(41 39)
(40 42)
(43 41)
(42 44)
(45 43)
(44 46)
(47 45)
(46 48)
(49 47)
(48 50)
(51 49)
(50 52)
(53 51)
(52 54)
(55 53)
(54 56)
(57 55)
(56 58)
(59 57)
(58 60)
(61 59)
(62 60)
(0 62)
(63 61)
(3 63)
)

// concaveStart mixedStart nonFeatureStart
0 0 0
// internalStart flatStart openStart multipleStart
64 64 64 64
// normals

96
(
(0.0980174 0.995185 -0)
(0 0 1)
(0.0980174 0.995185 0)
(0 0 -1)
(0.290285 0.95694 -0)
(0.290285 0.95694 0)
(0 0 -1)
(0.471397 0.881921 -0)
(0 0 1)
(0.471397 0.881921 0)
(0.634393 0.77301 -0)
(0.634393 0.77301 0)
(0 0 -1)
(0.77301 0.634393 -0)
(0 0 1)
(0.77301 0.634393 0)
(0.881921 0.471396 -0)
(0.881921 0.471396 0)
(0 0 -1)
(0.95694 0.290285 -0)
(0 0 1)
(0.95694 0.290285 0)
(0.995185 0.0980174 -0)
(0.995185 0.0980174 0)
(0 0 -1)
(0.995185 -0.0980171 0)
(0 0 1)
(0.995185 -0.0980171 0)
(0.95694 -0.290285 0)
(0.95694 -0.290285 0)
(0 0 -1)
(0.881921 -0.471396 0)
(0 0 1)
(0.881921 -0.471396 0)
(0.77301 -0.634393 0)
(0.77301 -0.634393 0)
(0 0 -1)
(0.634393 -0.77301 0)
(0 0 1)
(0.634393 -0.77301 0)
(0.471397 -0.881921 0)
(0.471397 -0.881921 0)
(0 0 -1)
(0.290284 -0.95694 0)
(0 0 1)
(0.290284 -0.95694 0)
(0.098017 -0.995185 0)
(0.098017 -0.995185 0)
(-0 0 -1)
(-0.0980177 -0.995185 0)
(0 0 1)
(-0.0980177 -0.995185 -0)
(-0.290285 -0.95694 0)
(-0.290285 -0.95694 -0)
(0 0 -1)
(-0.471397 -0.881921 0)
(0 0 1)
(-0.471397 -0.881921 -0)
(-0.634394 -0.77301 0)
(-0.634394 -0.77301 -0)
(0 0 -1)
(-0.773011 -0.634393 0)
(0 0 1)
(-0.773011 -0.634393 -0)
(-0.881922 -0.471396 0)
(-0.881922 -0.471396 -0)
(0 0 -1)
(-0.956941 -0.290284 0)
(0 0 1)
(-0.956941 -0.290284 -0)
(-0.995185 -0.0980163 0)
(-0.995185 -0.0980163 -0)
(0 0 -1)
(-0.995185 0.098018 0)
(0 0 1)
(-0.995185 0.098018 0)
(-0.95694 0.290286 0)
(-0.95694 0.290286 0)
(0 0 -1)
(-0.881921 0.471398 0)
(0 0 1)
(-0.881921 0.471398 0)
(-0.77301 0.634394 0)
(-0.77301 0.634394 0)
(0 0 -1)
(-0.634392 0.773011 0)
(0 0 1)
(-0.634392 0.773011 0)
(-0.471396 0.881922 0)
(-0.471396 0.881922 0)
(0 0 -1)
(0 0 1)
(-0.290283 0.956941 0)
(-0.0980164 0.995185 0)
(-0.290283 0.956941 0)
(-0.0980164 0.995185 0)
)

// normal volume types

96
(
0
0
0
0
0
0
0
0
0
0
0
0
0
0
0
0
0
0
0
0
0
0
0
0
0
0
0
0
0
0
0
0
0
0
0
0
0
0
0
0
0
0
0
0
0
0
0
0
0
0
0
0
0
0
0
0
0
0
0
0
0
0
0
0
0
0
0
0
0
0
0
0
0
0
0
0
0
0
0
0
0
0
0
0
0
0
0
0
0
0
0
0
0
0
0
0
)

// normalDirections

64
(
2(1 -1)
2(1 -1)
2(1 -1)
2(1 -1)
2(1 -1)
2(1 -1)
2(1 -1)
2(1 -1)
2(1 -1)
2(1 -1)
2(1 -1)
2(1 -1)
2(1 -1)
2(1 -1)
2(1 -1)
2(1 -1)
2(1 -1)
2(1 -1)
2(1 -1)
2(1 -1)
2(1 -1)
2(1 -1)
2(1 -1)
2(1 -1)
2(1 -1)
2(1 -1)
2(1 -1)
2(1 -1)
2(1 -1)
2(1 -1)
2(1 -1)
2(1 -1)
2(1 -1)
2(1 -1)
2(1 -1)
2(1 -1)
2(1 -1)
2(1 -1)
2(1 -1)
2(1 -1)
2(1 -1)
2(1 -1)
2(1 -1)
2(1 -1)
2(1 -1)
2(1 -1)
2(1 -1)
2(1 -1)
2(1 -1)
2(1 -1)
2(1 -1)
2(1 -1)
2(1 -1)
2(1 -1)
2(1 -1)
2(1 -1)
2(1 -1)
2(1 -1)
2(1 -1)
2(1 -1)
2(1 -1)
2(1 -1)
2(1 -1)
2(1 -1)
)

// edgeNormals

64
(
2(0 1)
2(2 3)
2(4 1)
2(5 6)
2(7 8)
2(9 6)
2(10 8)
2(11 12)
2(13 14)
2(15 12)
2(16 14)
2(17 18)
2(19 20)
2(21 18)
2(22 20)
2(23 24)
2(25 26)
2(27 24)
2(28 26)
2(29 30)
2(31 32)
2(33 30)
2(34 32)
2(35 36)
2(37 38)
2(39 36)
2(40 38)
2(41 42)
2(43 44)
2(45 42)
2(46 44)
2(47 48)
2(49 50)
2(51 48)
2(52 50)
2(53 54)
2(55 56)
2(57 54)
2(58 56)
2(59 60)
2(61 62)
2(63 60)
2(64 62)
2(65 66)
2(67 68)
2(69 66)
2(70 68)
2(71 72)
2(73 74)
2(75 72)
2(76 74)
2(77 78)
2(79 80)
2(81 78)
2(82 80)
2(83 84)
2(85 86)
2(87 84)
2(88 86)
2(89 90)
2(91 92)
2(91 93)
2(94 90)
2(95 3)
)

// featurePointNormals
0()
// featurePointEdges
0()
// regionEdges
0()


// ************************************************************************* //
