/*--------------------------------*- C++ -*----------------------------------*\
| =========                 |                                                 |
| \\      /  F ield         | OpenFOAM: The Open Source CFD Toolbox           |
|  \\    /   O peration     | Version:  v1806                                 |
|   \\  /    A nd           | Web:      www.OpenFOAM.com                      |
|    \\/     M anipulation  |                                                 |
\*---------------------------------------------------------------------------*/
FoamFile
{
    version     2.0;
    format      ascii;
    class       dictionary;
    location    "system";
    object      controlDict;
}
// * * * * * * * * * * * * * * * * * * * * * * * * * * * * * * * * * * * * * //

application     interFoam;

startFrom        startTime;

startTime       0;

stopAt           endTime;

endTime         100;

deltaT          0.0005;

writeControl     timeStep; //alternative:outputTime

writeInterval    1000;

purgeWrite      0;

writeFormat     ascii;

writePrecision  6;

writeCompression off;

timeFormat      general;

timePrecision   6;

runTimeModifiable no;

adjustTimeStep  no;

maxCo           0.25;

maxAlphaCo      0.25;

maxDeltaT       1;

functions
{
forces
        {
                type forces;
                functionObjectLibs ("libforces.so"); //Lib to load
                patches (cylinder); // change to your patch name
                rhoName rho; //Reference density for fluid
                UName U;
                rhoInf 1;
		log false;
                outputControl timeStep;
                outputInterval 1000;
                CofR (0 0 0); //Origin for moment calculations
        }
}


// ************************************************************************* //
